         MACRO
&NAME    PUTC  &DEST,&CHAR,&OFFSET
* Store a character at a location in a buffer
*
* Input:
* &TO Output buffer
* &CHAR Location of character
* &OFFSET Location of offset in buffer
*
* Registers:
* 0,1,2,3
&NAME    IC    1,&CHAR
         L     2,&OFFSET
         STC   1,&DEST(2)
         MEND
