         MACRO
&NAME    PUTC  &DEST,&CHAR,&OFFSET
* Store a character at a location in a buffer
*
* Input:
* &TO Output buffer
* &CHAR Location of character
* &OFFSET Location of offset in buffer
*
* Registers:
* 0,1,2,3
&NAME    L     1,=X'0'
         L     2,=X'0'
         IC    1,&CHAR
         L     2,&OFFSET
         LA    3,&DEST
         STC   1,3(2)
         MEND
